New Load.1 bus1=2.1.4 kV=0.23094010767585033 Vminpu=0.1 Vmaxpu=1.9 model=1 kW=1.6 pf=0.9 Phases=1
New Load.2 bus1=2.2.4 kV=0.23094010767585033 Vminpu=0.1 Vmaxpu=1.9 model=1 kW=2.7 pf=0.9 Phases=1
New Load.3 bus1=2.3.4 kV=0.23094010767585033 Vminpu=0.1 Vmaxpu=1.9 model=1 kW=3.1 pf=0.9 Phases=1
New Load.4 bus1=3.1.4 kV=0.23094010767585033 Vminpu=0.1 Vmaxpu=1.9 model=1 kW=3.8 pf=0.9 Phases=1
New Load.5 bus1=3.2.4 kV=0.23094010767585033 Vminpu=0.1 Vmaxpu=1.9 model=1 kW=1.1 pf=0.9 Phases=1
New Load.6 bus1=3.3.4 kV=0.23094010767585033 Vminpu=0.1 Vmaxpu=1.9 model=1 kW=3.5 pf=0.9 Phases=1

