! Define Medium Voltage Feeders (Connecting to LV networks)
New Line.MVFeeder1 Phases=3 Bus1=MVBus1 Bus2=sourcebus_11000 Length=5 Units=km LineCode=MVLineCode
!New Line.MVFeeder Phases=3 Bus1=MVBus1 Bus2=DistributionBus Length=5 Units=km LineCode=MVLineCode
