!Define the data related to MVside

!Zone transformer is connected between TransmissionBus and MVBus1
! Define Substation Transformer (33 to 11 kV)
New Transformer.Zone Phases=3 Windings=2 XHL=7
~ wdg=1 bus=TransmissionBus kV=33 kVA=20000 conn=delta %r=0.5 %imag=0.1
~ wdg=2 bus=MVBus1 kV=11 kVA=20000 conn=wye %r=0.5 %imag=0.1 tap=1.0 maxtap=2.2 mintap=0.5
