New Transformer.tr1 phases=3 windings=2 %loadloss=0.16999999999999998 wdg=1 conn=delta Kv=11.0 kva=400.0 bus=sourcebus wdg=2 conn=wye  Kv=0.41500000000000004 kva=400.0 bus=1.1.2.3.4 Xhl=3 ! lower impedance to reduce voltage drop across the transformer.